converter/opendss_cases/34Bus/ieee34-1_VLN_Node.txt

LINE-GROUND and LINE-LINE VOLTAGES BY BUS & NODE

Bus  Node    VLN (kV)   Angle      pu     Base kV    Node-Node   VLL (kV)  Angle      pu

SOURCEBUS .. 1       41.829 /_   30.0      1.05    69.000        1-2      72.45 /_   60.0      1.05
   -         2       41.829 /_  -90.0      1.05    69.000        2-3      72.45 /_  -60.0      1.05
   -         3       41.829 /_  150.0      1.05    69.000        3-1      72.45 /_  180.0      1.05
800 ........ 1       15.095 /_    0.0      1.05    24.900        1-2     26.145 /_   30.0      1.05
   -         2       15.095 /_ -120.0      1.05    24.900        2-3     26.145 /_  -90.0      1.05
   -         3       15.095 /_  120.0      1.05    24.900        3-1     26.145 /_  150.0      1.05
802 ........ 1       15.058 /_   -0.1    1.0475    24.900        1-2     26.096 /_   30.0     1.048
   -         2       15.072 /_ -120.1    1.0484    24.900        2-3     26.104 /_  -90.1    1.0484
   -         3       15.072 /_  119.9    1.0484    24.900        3-1     26.094 /_  149.9    1.0479
806 ........ 1       15.034 /_   -0.1    1.0458    24.900        1-2     26.064 /_   29.9    1.0468
   -         2       15.058 /_ -120.1    1.0474    24.900        2-3     26.077 /_  -90.1    1.0473
   -         3       15.058 /_  119.9    1.0474    24.900        3-1      26.06 /_  149.9    1.0466
808 ........ 1       14.576 /_   -0.7    1.0139    24.900        1-2     25.471 /_   29.4    1.0229
   -         2       14.805 /_ -121.0    1.0298    24.900        2-3     25.598 /_  -90.8     1.028
   -         3       14.792 /_  119.3    1.0289    24.900        3-1      25.44 /_  149.0    1.0217
810 ........ 2       14.803 /_ -121.0    1.0297    24.900
812 ........ 1       14.043 /_   -1.6   0.97684    24.900        1-2     24.786 /_   28.8   0.99543
   -         2       14.527 /_ -121.9    1.0105    24.900        2-3     25.053 /_  -91.7    1.0061
   -         3       14.477 /_  118.6     1.007    24.900        3-1      24.72 /_  148.0   0.99279
814 ........ 1        13.62 /_   -2.3   0.94741    24.900        1-2     24.241 /_   28.3   0.97354
   -         2       14.307 /_ -122.7   0.99519    24.900        2-3      24.62 /_  -92.4   0.98877
   -         3       14.226 /_  118.0   0.98954    24.900        3-1      24.15 /_  147.2    0.9699
814R ....... 1       14.638 /_   -2.3    1.0182    24.900        1-2     25.508 /_   27.6    1.0244
   -         2       14.752 /_ -122.7    1.0261    24.900        2-3     25.386 /_  -92.5    1.0195
   -         3       14.668 /_  118.0    1.0203    24.900        3-1     25.416 /_  147.8    1.0207
850 ........ 1       14.638 /_   -2.3    1.0182    24.900        1-2     25.508 /_   27.6    1.0244
   -         2       14.752 /_ -122.7    1.0261    24.900        2-3     25.386 /_  -92.5    1.0195
   -         3       14.668 /_  118.0    1.0203    24.900        3-1     25.416 /_  147.8    1.0207
816 ........ 1       14.632 /_   -2.3    1.0178    24.900        1-2       25.5 /_   27.6    1.0241
   -         2       14.748 /_ -122.7    1.0259    24.900        2-3      25.38 /_  -92.5    1.0193
   -         3       14.665 /_  118.0    1.0201    24.900        3-1     25.407 /_  147.8    1.0204
818 ........ 1       14.619 /_   -2.3    1.0169    24.900
824 ........ 1       14.503 /_   -2.4    1.0088    24.900        1-2     25.285 /_   27.4    1.0155
   -         2       14.614 /_ -123.0    1.0165    24.900        2-3     25.162 /_  -92.7    1.0105
   -         3       14.544 /_  117.7    1.0117    24.900        3-1     25.174 /_  147.6     1.011
820 ........ 1       14.278 /_   -2.3   0.99321    24.900
822 ........ 1       14.235 /_   -2.4   0.99017    24.900
826 ........ 2       14.611 /_ -123.0    1.0163    24.900
828 ........ 1       14.492 /_   -2.4    1.0081    24.900        1-2     25.269 /_   27.4    1.0148
   -         2       14.604 /_ -123.0    1.0159    24.900        2-3     25.145 /_  -92.7    1.0098
   -         3       14.534 /_  117.7     1.011    24.900        3-1     25.155 /_  147.6    1.0102
830 ........ 1       14.236 /_   -2.7   0.99028    24.900        1-2      24.86 /_   27.1   0.99838
   -         2       14.363 /_ -123.4    0.9991    24.900        2-3     24.734 /_  -93.2   0.99332
   -         3       14.289 /_  117.2   0.99396    24.900        3-1     24.691 /_  147.2   0.99162
854 ........ 1        14.23 /_   -2.7   0.98985    24.900        1-2      24.85 /_   27.1   0.99797
   -         2       14.357 /_ -123.4   0.99869    24.900        2-3     24.723 /_  -93.2   0.99291
   -         3       14.283 /_  117.2   0.99355    24.900        3-1      24.68 /_  147.2   0.99117
832 ........ 1       14.909 /_   -3.2    1.0371    24.900        1-2     25.942 /_   26.3    1.0418
   -         2        14.89 /_ -124.2    1.0357    24.900        2-3     25.728 /_  -94.0    1.0332
   -         3       14.896 /_  116.3    1.0362    24.900        3-1     25.742 /_  146.6    1.0338
858 ........ 1       14.875 /_   -3.2    1.0347    24.900        1-2     25.888 /_   26.2    1.0397
   -         2       14.856 /_ -124.3    1.0334    24.900        2-3     25.674 /_  -94.0    1.0311
   -         3       14.865 /_  116.2     1.034    24.900        3-1      25.68 /_  146.5    1.0313
834 ........ 1       14.837 /_   -3.3    1.0321    24.900        1-2     25.826 /_   26.1    1.0372
   -         2       14.817 /_ -124.4    1.0307    24.900        2-3     25.612 /_  -94.2    1.0286
   -         3       14.829 /_  116.1    1.0315    24.900        3-1     25.608 /_  146.4    1.0284
860 ........ 1       14.831 /_   -3.3    1.0316    24.900        1-2     25.816 /_   26.1    1.0368
   -         2       14.811 /_ -124.4    1.0303    24.900        2-3     25.602 /_  -94.2    1.0282
   -         3       14.824 /_  116.1    1.0311    24.900        3-1     25.597 /_  146.4     1.028
842 ........ 1       14.836 /_   -3.3     1.032    24.900        1-2     25.824 /_   26.1    1.0371
   -         2       14.816 /_ -124.4    1.0306    24.900        2-3      25.61 /_  -94.2    1.0285
   -         3       14.828 /_  116.1    1.0315    24.900        3-1     25.607 /_  146.4    1.0284
836 ........ 1       14.828 /_   -3.3    1.0314    24.900        1-2     25.809 /_   26.1    1.0365
   -         2       14.806 /_ -124.4    1.0299    24.900        2-3     25.596 /_  -94.2    1.0279
   -         3       14.821 /_  116.1     1.031    24.900        3-1     25.592 /_  146.4    1.0278
840 ........ 1       14.828 /_   -3.3    1.0314    24.900        1-2     25.809 /_   26.1    1.0365
   -         2       14.806 /_ -124.4    1.0299    24.900        2-3     25.595 /_  -94.2    1.0279
   -         3       14.821 /_  116.1     1.031    24.900        3-1     25.592 /_  146.4    1.0278
862 ........ 1       14.828 /_   -3.3    1.0314    24.900        1-2     25.809 /_   26.1    1.0365
   -         2       14.806 /_ -124.4    1.0299    24.900        2-3     25.595 /_  -94.2    1.0279
   -         3       14.822 /_  116.1     1.031    24.900        3-1     25.592 /_  146.4    1.0278
844 ........ 1       14.833 /_   -3.3    1.0318    24.900        1-2     25.818 /_   26.1    1.0369
   -         2       14.812 /_ -124.5    1.0303    24.900        2-3     25.604 /_  -94.2    1.0283
   -         3       14.825 /_  116.0    1.0312    24.900        3-1     25.601 /_  146.4    1.0281
846 ........ 1       14.837 /_   -3.4    1.0321    24.900        1-2     25.821 /_   26.0     1.037
   -         2       14.812 /_ -124.5    1.0303    24.900        2-3     25.608 /_  -94.2    1.0284
   -         3       14.829 /_  116.0    1.0315    24.900        3-1     25.607 /_  146.3    1.0284
848 ........ 1       14.838 /_   -3.4    1.0321    24.900        1-2     25.822 /_   26.0     1.037
   -         2       14.812 /_ -124.5    1.0303    24.900        2-3     25.609 /_  -94.2    1.0285
   -         3        14.83 /_  116.0    1.0316    24.900        3-1     25.608 /_  146.3    1.0284
852R ....... 1       14.909 /_   -3.2    1.0371    24.900        1-2     25.942 /_   26.3    1.0419
   -         2        14.89 /_ -124.2    1.0357    24.900        2-3     25.728 /_  -94.0    1.0333
   -         3       14.896 /_  116.3    1.0362    24.900        3-1     25.743 /_  146.6    1.0338
888 ........ 1       2.4034 /_   -4.7    1.0007     4.160        1-2     4.1829 /_   24.8    1.0055
   -         2       2.4008 /_ -125.8   0.99957     4.160        2-3     4.1479 /_  -95.5   0.99708
   -         3       2.4021 /_  114.8    1.0001     4.160        3-1     4.1504 /_  145.1    0.9977
856 ........ 2       14.356 /_ -123.4    0.9986    24.900
852 ........ 1        13.79 /_   -3.2   0.95926    24.900        1-2     24.136 /_   26.5   0.96932
   -         2       13.934 /_ -124.2   0.96924    24.900        2-3     24.006 /_  -94.0   0.96409
   -         3       13.859 /_  116.3   0.96401    24.900        3-1     23.881 /_  146.5   0.95906
864 ........ 1       14.875 /_   -3.2    1.0347    24.900
838 ........ 2       14.803 /_ -124.4    1.0297    24.900
890 ........ 1       2.2043 /_   -5.2   0.91778     4.160        1-2     3.8624 /_   24.1   0.92847
   -         2       2.2212 /_ -126.8    0.9248     4.160        2-3     3.8181 /_  -96.6    0.9178
   -         3       2.2044 /_  113.9   0.91784     4.160        3-1     3.8024 /_  144.3   0.91403
